@<TRIPOS>MOLECULE
UNL
   17    18     1     0     0
SMALL
bcc


@<TRIPOS>ATOM
      1 C           -3.4690    14.9710    -2.8060 ca         1 UNL       0.333900
      2 N           -4.5970    15.0170    -2.0610 nb         1 UNL      -0.624000
      3 C1          -4.5500    14.9730    -0.7130 ca         1 UNL       0.568000
      4 N1          -5.6570    15.0170     0.0480 nc         1 UNL      -0.739700
      5 C2          -5.6000    14.9720     1.4020 cd         1 UNL       0.692800
      6 N2          -6.8540    15.0270     2.0880 nv         1 UNL      -0.894800
      7 N3          -4.4230    14.8790     2.0540 ns         1 UNL      -0.512400
      8 C3          -3.2720    14.8310     1.3430 c          1 UNL       0.622000
      9 O           -2.1720    14.7460     1.9110 o          1 UNL      -0.576500
     10 C4          -3.3400    14.8780    -0.0330 ca         1 UNL       0.164500
     11 N4          -2.2000    14.8310    -0.7830 nb         1 UNL      -0.552000
     12 C5          -2.2640    14.8770    -2.1320 ca         1 UNL       0.243900
     13 H           -3.5050    15.0050    -3.8370 h4         1 UNL       0.039100
     14 H1          -7.6920    15.0950     1.5760 hn         1 UNL       0.427800
     15 H2          -6.8780    14.9980     3.0710 hn         1 UNL       0.427800
     16 H3          -4.4020    14.8480     3.0380 hn         1 UNL       0.338500
     17 H4          -1.3880    14.8400    -2.6760 h4         1 UNL       0.042100
@<TRIPOS>BOND
     1     1     2 ar  
     2     1    12 ar  
     3     1    13 1   
     4     2     3 ar  
     5     3     4 1   
     6     3    10 ar  
     7     4     5 2   
     8     5     6 1   
     9     5     7 1   
    10     6    14 1   
    11     6    15 1   
    12     7     8 1   
    13     7    16 1   
    14     8     9 2   
    15     8    10 1   
    16    10    11 ar  
    17    11    12 ar  
    18    12    17 1   
@<TRIPOS>SUBSTRUCTURE
     1 UNL         1 TEMP              0 ****  ****    0 ROOT
