@<TRIPOS>MOLECULE
UNL
   17    18     1     0     0
SMALL
bcc


@<TRIPOS>ATOM
      1 C           -5.3100    15.2620     0.7370 ca         1 UNL       0.333900
      2 N           -4.1600    15.0230     1.4110 nb         1 UNL      -0.624000
      3 C1          -2.9790    14.9160     0.7670 ca         1 UNL       0.568000
      4 N1          -1.8260    14.6800     1.4140 nc         1 UNL      -0.739700
      5 C2          -0.6430    14.5740     0.7580 cd         1 UNL       0.692800
      6 N2           0.5070    14.3210     1.5690 nv         1 UNL      -0.894800
      7 N3          -0.5680    14.7010    -0.5820 ns         1 UNL      -0.512400
      8 C3          -1.6960    14.9410    -1.2910 c          1 UNL       0.622000
      9 O           -1.6630    15.0640    -2.5250 o          1 UNL      -0.576500
     10 C4          -2.8930    15.0470    -0.6160 ca         1 UNL       0.164500
     11 N4          -4.0520    15.2880    -1.2970 nb         1 UNL      -0.552000
     12 C5          -5.2270    15.3920    -0.6370 ca         1 UNL       0.243900
     13 H           -6.2130    15.3440     1.2300 h4         1 UNL       0.039100
     14 H1           0.4120    14.2340     2.5450 hn         1 UNL       0.427800
     15 H2           1.3940    14.2330     1.1520 hn         1 UNL       0.427800
     16 H3           0.3000    14.6210    -1.0410 hn         1 UNL       0.338500
     17 H4          -6.0880    15.5740    -1.1760 h4         1 UNL       0.042100
@<TRIPOS>BOND
     1     1     2 ar  
     2     1    12 ar  
     3     1    13 1   
     4     2     3 ar  
     5     3     4 1   
     6     3    10 ar  
     7     4     5 2   
     8     5     6 1   
     9     5     7 1   
    10     6    14 1   
    11     6    15 1   
    12     7     8 1   
    13     7    16 1   
    14     8     9 2   
    15     8    10 1   
    16    10    11 ar  
    17    11    12 ar  
    18    12    17 1   
@<TRIPOS>SUBSTRUCTURE
     1 UNL         1 TEMP              0 ****  ****    0 ROOT
