
     RDKit          3D

 12 13  0  0  0  0  0  0  0  0999 V2000
   -0.2948   15.4125   -3.6916 C   0  0  0  0  0  0  0  0  0  0  0  0
   -1.2796   16.2316   -4.1291 N   0  0  0  0  0  0  0  0  0  0  0  0
   -1.0155   17.2697   -4.9493 C   0  0  0  0  0  0  0  0  0  0  0  0
   -1.9764   18.0961   -5.3965 N   0  0  0  0  0  0  0  0  0  0  0  0
   -1.7014   19.1373   -6.2210 C   0  0  0  0  0  0  0  0  0  0  0  0
   -2.8176   19.9366   -6.6206 N   0  0  0  0  0  0  0  0  0  0  0  0
   -0.4437   19.3953   -6.6342 N   0  0  0  0  0  0  0  0  0  0  0  0
    0.5681   18.5978   -6.2176 C   0  0  0  0  0  0  0  0  0  0  0  0
    1.7370   18.8068   -6.5787 O   0  0  0  0  0  0  0  0  0  0  0  0
    0.2792   17.5422   -5.3800 C   0  0  0  0  0  0  0  0  0  0  0  0
    1.2738   16.7172   -4.9398 N   0  0  0  0  0  0  0  0  0  0  0  0
    0.9932   15.6813   -4.1183 C   0  0  0  0  0  0  0  0  0  0  0  0
  1  2  2  0
  2  3  1  0
  3  4  1  0
  4  5  2  0
  5  6  1  0
  5  7  1  0
  7  8  1  0
  8  9  2  0
  8 10  1  0
 10 11  1  0
 11 12  2  0
 12  1  1  0
 10  3  2  0
M  END
$$$$
