
     RDKit          3D

 12 13  0  0  0  0  0  0  0  0999 V2000
   -0.0783   15.7247   -3.8086 C   0  0  0  0  0  0  0  0  0  0  0  0
   -1.1374   16.5033   -4.1319 N   0  0  0  0  0  0  0  0  0  0  0  0
   -1.0123   17.5359   -4.9909 C   0  0  0  0  0  0  0  0  0  0  0  0
   -2.0491   18.3223   -5.3268 N   0  0  0  0  0  0  0  0  0  0  0  0
   -1.9139   19.3584   -6.1915 C   0  0  0  0  0  0  0  0  0  0  0  0
   -3.0979   20.1133   -6.4608 N   0  0  0  0  0  0  0  0  0  0  0  0
   -0.7260   19.6514   -6.7592 N   0  0  0  0  0  0  0  0  0  0  0  0
    0.3566   18.8951   -6.4603 C   0  0  0  0  0  0  0  0  0  0  0  0
    1.4645   19.1370   -6.9648 O   0  0  0  0  0  0  0  0  0  0  0  0
    0.2097   17.8444   -5.5806 C   0  0  0  0  0  0  0  0  0  0  0  0
    1.2790   17.0604   -5.2559 N   0  0  0  0  0  0  0  0  0  0  0  0
    1.1376   16.0294   -4.3935 C   0  0  0  0  0  0  0  0  0  0  0  0
  1  2  2  0
  2  3  1  0
  3  4  1  0
  4  5  2  0
  5  6  1  0
  5  7  1  0
  7  8  1  0
  8  9  2  0
  8 10  1  0
 10 11  1  0
 11 12  2  0
 12  1  1  0
 10  3  2  0
M  END
$$$$
