
     RDKit          3D

 12 13  0  0  0  0  0  0  0  0999 V2000
   -0.2592   15.9190   -4.0607 C   0  0  0  0  0  0  0  0  0  0  0  0
   -1.2939   16.7663   -4.2698 N   0  0  0  0  0  0  0  0  0  0  0  0
   -1.1771   17.8250   -5.0978 C   0  0  0  0  0  0  0  0  0  0  0  0
   -2.1903   18.6794   -5.3208 N   0  0  0  0  0  0  0  0  0  0  0  0
   -2.0636   19.7412   -6.1550 C   0  0  0  0  0  0  0  0  0  0  0  0
   -3.2199   20.5694   -6.3011 N   0  0  0  0  0  0  0  0  0  0  0  0
   -0.9086   19.9924   -6.8048 N   0  0  0  0  0  0  0  0  0  0  0  0
    0.1489   19.1671   -6.6211 C   0  0  0  0  0  0  0  0  0  0  0  0
    1.2263   19.3691   -7.2033 O   0  0  0  0  0  0  0  0  0  0  0  0
    0.0110   18.0907   -5.7715 C   0  0  0  0  0  0  0  0  0  0  0  0
    1.0557   17.2374   -5.5620 N   0  0  0  0  0  0  0  0  0  0  0  0
    0.9230   16.1811   -4.7294 C   0  0  0  0  0  0  0  0  0  0  0  0
  1  2  2  0
  2  3  1  0
  3  4  1  0
  4  5  2  0
  5  6  1  0
  5  7  1  0
  7  8  1  0
  8  9  2  0
  8 10  1  0
 10 11  1  0
 11 12  2  0
 12  1  1  0
 10  3  2  0
M  END
$$$$
