
     RDKit          3D

 12 13  0  0  0  0  0  0  0  0999 V2000
   -5.9572   16.3046   -7.2068 C   0  0  0  0  0  0  0  0  0  0  0  0
   -6.4701   17.5571   -7.2315 N   0  0  0  0  0  0  0  0  0  0  0  0
   -5.6995   18.6355   -6.9800 C   0  0  0  0  0  0  0  0  0  0  0  0
   -6.1863   19.8880   -6.9989 N   0  0  0  0  0  0  0  0  0  0  0  0
   -5.4039   20.9663   -6.7448 C   0  0  0  0  0  0  0  0  0  0  0  0
   -6.0503   22.2406   -6.7979 N   0  0  0  0  0  0  0  0  0  0  0  0
   -4.0924   20.8333   -6.4593 N   0  0  0  0  0  0  0  0  0  0  0  0
   -3.5432   19.5962   -6.4253 C   0  0  0  0  0  0  0  0  0  0  0  0
   -2.3398   19.4378   -6.1660 O   0  0  0  0  0  0  0  0  0  0  0  0
   -4.3459   18.5063   -6.6848 C   0  0  0  0  0  0  0  0  0  0  0  0
   -3.8267   17.2440   -6.6594 N   0  0  0  0  0  0  0  0  0  0  0  0
   -4.6117   16.1736   -6.9135 C   0  0  0  0  0  0  0  0  0  0  0  0
  1  2  2  0
  2  3  1  0
  3  4  1  0
  4  5  2  0
  5  6  1  0
  5  7  1  0
  7  8  1  0
  8  9  2  0
  8 10  1  0
 10 11  1  0
 11 12  2  0
 12  1  1  0
 10  3  2  0
M  END
$$$$
