
     RDKit          3D

 12 13  0  0  0  0  0  0  0  0999 V2000
   -4.0650   12.3816   -2.8360 C   0  0  0  0  0  0  0  0  0  0  0  0
   -2.8278   12.3070   -2.2918 N   0  0  0  0  0  0  0  0  0  0  0  0
   -1.9309   13.3022   -2.4503 C   0  0  0  0  0  0  0  0  0  0  0  0
   -0.6972   13.2505   -1.9196 N   0  0  0  0  0  0  0  0  0  0  0  0
    0.1980   14.2559   -2.0843 C   0  0  0  0  0  0  0  0  0  0  0  0
    1.4740   14.0713   -1.4663 N   0  0  0  0  0  0  0  0  0  0  0  0
   -0.1080   15.3624   -2.7923 N   0  0  0  0  0  0  0  0  0  0  0  0
   -1.3360   15.4733   -3.3519 C   0  0  0  0  0  0  0  0  0  0  0  0
   -1.6505   16.4777   -4.0097 O   0  0  0  0  0  0  0  0  0  0  0  0
   -2.2391   14.4466   -3.1793 C   0  0  0  0  0  0  0  0  0  0  0  0
   -3.4863   14.5237   -3.7289 N   0  0  0  0  0  0  0  0  0  0  0  0
   -4.3738   13.5183   -3.5611 C   0  0  0  0  0  0  0  0  0  0  0  0
  1  2  2  0
  2  3  1  0
  3  4  1  0
  4  5  2  0
  5  6  1  0
  5  7  1  0
  7  8  1  0
  8  9  2  0
  8 10  1  0
 10 11  1  0
 11 12  2  0
 12  1  1  0
 10  3  2  0
M  END
$$$$
