
     RDKit          3D

 12 13  0  0  0  0  0  0  0  0999 V2000
    1.4999   14.2757   -0.5382 C   0  0  0  0  0  0  0  0  0  0  0  0
    0.1553   14.3539   -0.4030 N   0  0  0  0  0  0  0  0  0  0  0  0
   -0.6528   14.4575   -1.4783 C   0  0  0  0  0  0  0  0  0  0  0  0
   -1.9899   14.5365   -1.3687 N   0  0  0  0  0  0  0  0  0  0  0  0
   -2.7945   14.6404   -2.4555 C   0  0  0  0  0  0  0  0  0  0  0  0
   -4.1984   14.7164   -2.1955 N   0  0  0  0  0  0  0  0  0  0  0  0
   -2.2891   14.6695   -3.7057 N   0  0  0  0  0  0  0  0  0  0  0  0
   -0.9487   14.5935   -3.8812 C   0  0  0  0  0  0  0  0  0  0  0  0
   -0.4503   14.6175   -5.0177 O   0  0  0  0  0  0  0  0  0  0  0  0
   -0.1389   14.4882   -2.7710 C   0  0  0  0  0  0  0  0  0  0  0  0
    1.2169   14.4093   -2.9095 N   0  0  0  0  0  0  0  0  0  0  0  0
    2.0132   14.3060   -1.8224 C   0  0  0  0  0  0  0  0  0  0  0  0
  1  2  2  0
  2  3  1  0
  3  4  1  0
  4  5  2  0
  5  6  1  0
  5  7  1  0
  7  8  1  0
  8  9  2  0
  8 10  1  0
 10 11  1  0
 11 12  2  0
 12  1  1  0
 10  3  2  0
M  END
$$$$
