@<TRIPOS>MOLECULE
UNL
   17    18     1     0     0
SMALL
bcc


@<TRIPOS>ATOM
      1 C           -4.0650    12.3820    -2.8360 ca         1 UNL       0.333900
      2 N           -2.8280    12.3070    -2.2920 nb         1 UNL      -0.624000
      3 C1          -1.9310    13.3020    -2.4500 ca         1 UNL       0.568000
      4 N1          -0.6970    13.2510    -1.9200 nc         1 UNL      -0.739700
      5 C2           0.1980    14.2560    -2.0840 cd         1 UNL       0.692800
      6 N2           1.4740    14.0710    -1.4660 nv         1 UNL      -0.894800
      7 N3          -0.1080    15.3620    -2.7920 ns         1 UNL      -0.512400
      8 C3          -1.3360    15.4730    -3.3520 c          1 UNL       0.622000
      9 O           -1.6510    16.4780    -4.0100 o          1 UNL      -0.576500
     10 C4          -2.2390    14.4470    -3.1790 ca         1 UNL       0.164500
     11 N4          -3.4860    14.5240    -3.7290 nb         1 UNL      -0.552000
     12 C5          -4.3740    13.5180    -3.5610 ca         1 UNL       0.243900
     13 H           -4.7510    11.6200    -2.7150 h4         1 UNL       0.039100
     14 H1           1.6600    13.2490    -0.9570 hn         1 UNL       0.427800
     15 H2           2.1670    14.7660    -1.5500 hn         1 UNL       0.427800
     16 H3           0.5550    16.0820    -2.9010 hn         1 UNL       0.338500
     17 H4          -5.3100    13.6010    -3.9870 h4         1 UNL       0.042100
@<TRIPOS>BOND
     1     1     2 ar  
     2     1    12 ar  
     3     1    13 1   
     4     2     3 ar  
     5     3     4 1   
     6     3    10 ar  
     7     4     5 2   
     8     5     6 1   
     9     5     7 1   
    10     6    14 1   
    11     6    15 1   
    12     7     8 1   
    13     7    16 1   
    14     8     9 2   
    15     8    10 1   
    16    10    11 ar  
    17    11    12 ar  
    18    12    17 1   
@<TRIPOS>SUBSTRUCTURE
     1 UNL         1 TEMP              0 ****  ****    0 ROOT
